12
XYZ file generated by orca_plot on BaseName=ben
  C      -6.432859      0.466545      0.000000
  C      -5.040107      0.543640     -0.000000
  C      -4.276680     -0.623885     -0.000000
  H      -4.550454      1.511692     -0.000000
  C      -7.062372     -0.778358     -0.000000
  H      -7.026289      1.374518      0.000000
  C      -6.298945     -1.945883     -0.000000
  H      -8.145686     -0.838694     -0.000000
  C      -4.906194     -1.868789      0.000000
  H      -3.193366     -0.563550     -0.000000
  H      -6.788597     -2.913936     -0.000000
  H      -4.312759     -2.776759      0.000000
